** ============================================================
** LARGE ABAQUS TEST FILE - generated for syntax highlight testing
** Target size: ~250KB
** ============================================================

*HEADING
Large mesh test model - 3D solid block
Generated to test syntax highlighting on large inp files

** ---- NODES ------------------------------------------------
*NODE, NSET=ALL_NODES
     1,     0.000000,     0.000000,     0.000000
     2,     0.250000,     0.000000,     0.000000
     3,     0.500000,     0.000000,     0.000000
     4,     0.750000,     0.000000,     0.000000
     5,     1.000000,     0.000000,     0.000000
     6,     1.250000,     0.000000,     0.000000
     7,     1.500000,     0.000000,     0.000000
     8,     1.750000,     0.000000,     0.000000
     9,     2.000000,     0.000000,     0.000000
    10,     2.250000,     0.000000,     0.000000
    11,     2.500000,     0.000000,     0.000000
    12,     2.750000,     0.000000,     0.000000
    13,     3.000000,     0.000000,     0.000000
    14,     3.250000,     0.000000,     0.000000
    15,     3.500000,     0.000000,     0.000000
    16,     3.750000,     0.000000,     0.000000
    17,     4.000000,     0.000000,     0.000000
    18,     0.000000,     0.250000,     0.000000
    19,     0.250000,     0.250000,     0.000000
    20,     0.500000,     0.250000,     0.000000
** ... 2581 like lines cut

** ---- ELEMENTS ---------------------------------------------
*ELEMENT, TYPE=C3D8R, ELSET=SOLID_ELS
     1,     1,    2,   19,   18,  290,  291,  308,  307
     2,     2,    3,   20,   19,  291,  292,  309,  308
     3,     3,    4,   21,   20,  292,  293,  310,  309
     4,     4,    5,   22,   21,  293,  294,  311,  310
     5,     5,    6,   23,   22,  294,  295,  312,  311
     6,     6,    7,   24,   23,  295,  296,  313,  312
     7,     7,    8,   25,   24,  296,  297,  314,  313
     8,     8,    9,   26,   25,  297,  298,  315,  314
     9,     9,   10,   27,   26,  298,  299,  316,  315
    10,    10,   11,   28,   27,  299,  300,  317,  316
    11,    11,   12,   29,   28,  300,  301,  318,  317
    12,    12,   13,   30,   29,  301,  302,  319,  318
    13,    13,   14,   31,   30,  302,  303,  320,  319
    14,    14,   15,   32,   31,  303,  304,  321,  320
    15,    15,   16,   33,   32,  304,  305,  322,  321
    16,    16,   17,   34,   33,  305,  306,  323,  322
    17,    18,   19,   36,   35,  307,  308,  325,  324
    18,    19,   20,   37,   36,  308,  309,  326,  325
    19,    20,   21,   38,   37,  309,  310,  327,  326
    20,    21,   22,   39,   38,  310,  311,  328,  327
** ... 2028 like lines cut

** ---- NODE SETS -------------------------------------------
*NSET, NSET=FIXED_FACE
1, 18, 35, 52, 69, 86, 103, 120,
137, 154, 171, 188, 205, 222, 239, 256,
273,
*NSET, NSET=FREE_FACE
2329, 2346, 2363, 2380, 2397, 2414, 2431, 2448,
2465, 2482, 2499, 2516, 2533, 2550, 2567, 2584,
2601,

** ---- ELEMENT SETS ----------------------------------------
*ELSET, ELSET=SOLID_ELS, GENERATE
1, 2048, 1

** ---- MATERIAL ---------------------------------------------
*MATERIAL, NAME=STEEL
*DENSITY
7850.0,
*ELASTIC, TYPE=ISOTROPIC
210000.0, 0.3
*PLASTIC
250.0000, 0.0000
269.0325, 0.0100
286.2538, 0.0200
301.8364, 0.0300
315.9360, 0.0400
328.6939, 0.0500
340.2377, 0.0600
350.6829, 0.0700
360.1342, 0.0800
368.6861, 0.0900
376.4241, 0.1000
383.4258, 0.1100
389.7612, 0.1200
395.4936, 0.1300
400.6806, 0.1400
405.3740, 0.1500
409.6207, 0.1600
413.4633, 0.1700
416.9402, 0.1800
420.0863, 0.1900

** ---- SECTION ----------------------------------------------
*SOLID SECTION, ELSET=SOLID_ELS, MATERIAL=STEEL

** ---- STEP : STATIC ----------------------------------------
*STEP, NAME=STATIC_STEP, NLGEOM=YES
*STATIC
0.1, 1.0, 1e-5, 1.0
**
*BOUNDARY, TYPE=DISPLACEMENT
FIXED_FACE, 1, 6, 0.0
**
*CLOAD
FREE_FACE, 3, -5000.0
**
*OUTPUT, FIELD, NUMBER INTERVAL=10
*NODE OUTPUT
U, RF
*ELEMENT OUTPUT, DIRECTIONS=YES
S, E, PE, PEEQ, MISES
*OUTPUT, HISTORY, TIME INTERVAL=0.05
*NODE OUTPUT, NSET=FREE_FACE
U, RF
*END STEP

** ---- END OF FILE ------------------------------------------
